OpenDSS_Python_Interface/ieee39bus_system/samplename_VLL.Txt

SYMMETRICAL COMPONENT PHASE-PHASE VOLTAGES BY BUS (for 3-phase buses)

Bus             Mag:   V1 (kV)    p.u.     V2 (kV)   %V2/V1    V0 (kV)    %V0/V1

sourcebus            115     0.8333  4.877E-008  4.241E-008 1.312E-014 1.141E-014
bus8(clinchr)      100.8     0.7304  4.273E-008  4.239E-008 2.44E-014 2.421E-014
bus9               98.15     0.7112  4.16E-008  4.238E-008 7.276E-015 7.413E-015
bus6(beaverc)      102.3     0.7414  4.337E-008  4.239E-008  1.5E-014 1.466E-014
bus3(logan)          104     0.7537  4.409E-008  4.239E-008 1.819E-014 1.749E-014
bus2(turner)         107     0.7752  4.536E-008  4.24E-008 2.058E-014 1.924E-014
bus1(kanawha)      105.6     0.7651  4.477E-008  4.24E-008 1.15E-014 1.09E-014
bus12(glenlyn)     95.37     0.6911  4.041E-008  4.238E-008 1.455E-014 1.526E-014
bus53              78.35     0.5678  3.323E-008  4.241E-008 1.324E-014 1.69E-014
bus52              78.99     0.5724  3.35E-008  4.241E-008 8.135E-015 1.03E-014
bus27              79.33     0.5749  3.364E-008  4.241E-008 9.095E-015 1.146E-014
bus26              78.93      0.572  3.347E-008  4.241E-008 9.095E-015 1.152E-014
bus50              79.86     0.5787  3.386E-008  4.24E-008 1.091E-014 1.367E-014
bus49              80.81     0.5856  3.426E-008  4.24E-008 7.276E-015 9.003E-015
bus17              99.84     0.7235  4.232E-008  4.239E-008 1.819E-014 1.822E-014
bus55              85.03     0.6162  3.605E-008  4.239E-008 1.455E-014 1.711E-014
bus54              81.22     0.5885  3.444E-008  4.24E-008 1.029E-014 1.267E-014
bus29              81.08     0.5875  3.439E-008  4.241E-008 1.091E-014 1.346E-014
bus7               100.5     0.7283  4.26E-008  4.239E-008  1.5E-014 1.492E-014
bus5                 102     0.7393  4.325E-008  4.239E-008 1.312E-014 1.286E-014
bus4               102.8     0.7453  4.36E-008  4.239E-008 2.301E-014 2.237E-014
bus28              80.24     0.5814  3.403E-008  4.241E-008 9.796E-015 1.221E-014
bus24              77.82     0.5639   3.3E-008  4.241E-008 8.135E-015 1.045E-014
bus25              74.65      0.541  3.164E-008  4.239E-008 1.091E-014 1.462E-014
bus30              73.66     0.5337  3.122E-008  4.239E-008 8.135E-015 1.104E-014
bus31              72.62     0.5262  3.079E-008  4.239E-008 1.091E-014 1.503E-014
bus18                 94     0.6812  3.986E-008  4.241E-008  1.5E-014 1.596E-014
bus19              86.59     0.6275  3.672E-008  4.241E-008 1.15E-014 1.329E-014
bus20              83.45     0.6047  3.539E-008  4.24E-008 1.627E-014 1.95E-014
bus21               80.7     0.5848  3.422E-008  4.24E-008 8.135E-015 1.008E-014
bus22              80.13     0.5807  3.398E-008  4.24E-008 5.457E-015 6.81E-015
bus23              79.93     0.5792  3.389E-008  4.24E-008 7.276E-015 9.102E-015
bus16              96.62     0.7002  4.095E-008  4.238E-008 1.455E-014 1.506E-014
bus10              95.29     0.6905  4.038E-008  4.238E-008 1.091E-014 1.145E-014
bus15              100.7     0.7297  4.268E-008  4.239E-008 2.301E-014 2.285E-014
bus14              98.01     0.7102  4.154E-008  4.238E-008  1.5E-014 1.53E-014
bus45              84.62     0.6132  3.589E-008  4.241E-008 7.276E-015 8.598E-015
bus44              81.36     0.5896  3.45E-008  4.24E-008 7.276E-015 8.943E-015
bus38              80.38     0.5824  3.408E-008  4.24E-008 9.796E-015 1.219E-014
bus37               79.6     0.5768  3.375E-008  4.24E-008 8.135E-015 1.022E-014
bus36              79.27     0.5744  3.361E-008  4.24E-008 5.457E-015 6.884E-015
bus35              78.57     0.5693  3.331E-008  4.24E-008 9.796E-015 1.247E-014
bus34              78.04     0.5655  3.309E-008  4.24E-008 7.276E-015 9.324E-015
bus32              74.49     0.5398  3.158E-008  4.24E-008 9.095E-015 1.221E-014
bus33              74.34     0.5387  3.152E-008  4.24E-008 7.276E-015 9.787E-015
bus46              82.31     0.5964  3.49E-008  4.241E-008 1.091E-014 1.326E-014
bus47              80.79     0.5854  3.426E-008  4.24E-008 9.796E-015 1.212E-014
bus48              80.67     0.5845  3.42E-008  4.24E-008 5.457E-015 6.765E-015
bus39               79.6     0.5768  3.375E-008  4.24E-008 7.276E-015 9.14E-015
bus40              79.44     0.5756  3.368E-008  4.24E-008 7.276E-015 9.16E-015
bus57              79.51     0.5762  3.371E-008  4.24E-008 9.095E-015 1.144E-014
bus56              81.06     0.5874  3.437E-008  4.239E-008 9.796E-015 1.208E-014
bus41              87.91      0.637  3.727E-008  4.239E-008 8.135E-015 9.253E-015
bus43              90.76     0.6577  3.848E-008  4.24E-008 1.819E-014 2.004E-014
bus11              96.81     0.7015  4.103E-008  4.238E-008  1.5E-014 1.549E-014
bus13               97.2     0.7043  4.12E-008  4.238E-008 1.15E-014 1.184E-014
bus42              83.42     0.6045  3.536E-008  4.239E-008 9.095E-015 1.09E-014
bus51              82.13     0.5951  3.482E-008  4.24E-008 1.324E-014 1.612E-014
